Examples/ADiakoptics/ckt24/Torn_Circuit/Master.DSS
Clear
New Circuit.ckt24


Redirect Vsource.dss
Redirect WireData.DSS
Redirect LineGeometry.DSS
Redirect LineCode.DSS
Redirect LoadShape.DSS
Redirect GrowthShape.DSS
Redirect TCC_Curve.DSS
Redirect Spectrum.DSS
Redirect Line.DSS
Redirect Load.DSS
Redirect Transformer.DSS
Redirect RegControl.DSS
Redirect Capacitor.DSS
MakeBusList
Redirect BusVoltageBases.dss  ! set voltage bases
Buscoords buscoords.dss
GIScoords GIScoords.dss
